LTspice 24.1.8 for Windows
Circuit: D:\Semester 3\Lab\Analog ECG Monitor\Simulations\heart_model\ECG with noise.net
Start Time: Sun Aug 31 00:41:26 2025
solver = Normal
Maximum thread count: 16
tnom = 27
temp = 27
method = trap
Direct Newton iteration failed to find .op point.  (Use ".option noopiter" to skip.)
Starting Gmin stepping
Gmin = 10
Gmin = 1.07374
Gmin = 0.115292
Gmin = 0.0123794
Gmin = 0.00132923
Gmin = 0.000142725
Gmin = 1.5325e-05
Gmin = 1.6455e-06
Gmin = 1.76685e-07
Gmin = 1.89714e-08
Gmin = 2.03704e-09
Gmin = 2.18725e-10
Gmin = 2.34854e-11
Gmin = 2.52173e-12
Gmin = 2.70769e-13
Gmin = 0
Gmin stepping succeeded in finding the operating point.


Simulation stopped by user.
Total elapsed time: 82.164 seconds.

Files loaded:
D:\Semester 3\Lab\Analog ECG Monitor\Simulations\heart_model\ECG with noise.net
C:\Users\Manitha Ayanaja\AppData\Local\LTspice\lib\cmp\standard.bjt

