LTspice 24.1.8 for Windows
Circuit: D:\Downloads New\heart_model\heart_model\heart_cell_module.net
Start Time: Sun Aug 31 00:14:16 2025
solver = Normal
Maximum thread count: 16
tnom = 27
temp = 27
method = trap
WARNING: Node n011 is floating.

Direct Newton iteration failed to find .op point.  (Use ".option noopiter" to skip.)
Starting Gmin stepping
Gmin = 10
Gmin = 1.07374
Gmin = 0.115292
Gmin = 0.0123794
Gmin = 0.00132923
Gmin = 0.000142725
Gmin = 1.5325e-05
Gmin = 1.6455e-06
Gmin = 1.76685e-07
Gmin = 1.89714e-08
Gmin = 2.03704e-09
Gmin = 2.18725e-10
Gmin = 2.34854e-11
Gmin = 2.52173e-12
Gmin = 2.70769e-13
vernier = 0.5
vernier = 0.666667
vernier = 0.333333
vernier = 0.166667
Gmin = 1.80309e-13
vernier = 0.0833333
vernier = 0.0416667
vernier = 0.0208333
vernier = 0.0104167
vernier = 0.00520833
Gmin = 1.85644e-13
vernier = 0.00260417
vernier = 0.00130208
vernier = 0.000651042
vernier = 0.000488281
Gmin = 0
Gmin stepping failed

Starting source stepping with srcstepmethod=0
Source Step = 3.0303%
Source Step = 13.7311%
vernier = 0.00390625
Source Step = 13.737%
Source Step = 13.7666%
Source Step = 13.7962%
Source Step = 13.8258%
Source Step = 13.8554%
Source Step = 13.8849%
Source Step = 13.9145%
Source Step = 13.9441%
vernier = 0.00146484
Source Step = 13.9796%
Source Step = 14.024%
Source Step = 14.0684%
Source Step = 14.1128%
Source Step = 14.1572%
vernier = 0.00219727
Source Step = 14.2082%
Source Step = 14.2748%
Source Step = 14.3414%
Source Step = 14.408%
Source Step = 14.4746%
Source Step = 14.5412%
Source Step = 14.6077%
vernier = 0.0032959
Source Step = 14.691%
Source Step = 14.7909%
Source Step = 14.8907%
Source Step = 14.9906%
Source Step = 15.0905%
vernier = 0.00494385
Source Step = 15.2103%
Source Step = 15.3601%
Source Step = 15.51%
Source Step = 15.6598%
Source Step = 15.8096%
vernier = 0.00741577
Source Step = 15.9819%
Source Step = 16.2066%
Source Step = 16.4313%
Source Step = 16.656%
Source Step = 16.8808%
vernier = 0.0111237
Source Step = 17.1279%
Source Step = 17.465%
Source Step = 17.8021%
Source Step = 18.1392%
Source Step = 18.4763%
vernier = 0.0166855
Source Step = 18.8302%
Source Step = 19.3358%
Source Step = 19.8414%
Source Step = 20.3471%
Source Step = 20.8527%
Source Step = 21.3583%
vernier = 0.0250282
Source Step = 22.1167%
Source Step = 22.8752%
Source Step = 23.6336%
Source Step = 24.392%
Source Step = 25.1505%
vernier = 0.0375423
Source Step = 26.2502%
Source Step = 27.3878%
Source Step = 28.5255%
Source Step = 29.6631%
Source Step = 30.8008%
Source Step = 30.9216%
Source Step = 30.9928%
Source Step = 31.0639%
Source Step = 31.135%
Source Step = 31.2061%
Source Step = 31.2772%
vernier = 0.00351959
Source Step = 31.3838%
Source Step = 31.4905%
Source Step = 31.5971%
Source Step = 31.7038%
Source Step = 31.8104%
vernier = 0.00527939
Source Step = 31.9651%
Source Step = 32.1251%
Source Step = 32.285%
Source Step = 32.445%
Source Step = 32.605%
vernier = 0.00791909
Source Step = 32.829%
Source Step = 33.069%
Source Step = 33.3089%
Source Step = 33.5489%
Source Step = 33.7889%
vernier = 0.0118786
Source Step = 34.1128%
Source Step = 34.4728%
Source Step = 34.8328%
Source Step = 35.1927%
Source Step = 35.5527%
vernier = 0.0178179
Source Step = 36.0206%
Source Step = 36.5606%
Source Step = 37.1005%
Source Step = 37.6404%
Source Step = 38.1804%
vernier = 0.0267269
Source Step = 38.8553%
Source Step = 39.6652%
Source Step = 40.4751%
Source Step = 41.285%
Source Step = 42.0949%
vernier = 0.0400904
Source Step = 43.0668%
Source Step = 44.2817%
Source Step = 45.4965%
Source Step = 46.7114%
Source Step = 47.9262%
vernier = 0.0601356
Source Step = 49.3233%
Source Step = 51.1456%
Source Step = 52.9679%
Source Step = 54.7902%
Source Step = 56.6125%
vernier = 0.0902034
Source Step = 58.617%
Source Step = 61.3504%
Source Step = 64.0839%
Source Step = 66.8173%
Source Step = 69.5508%
vernier = 0.135305
Source Step = 72.4209%
Source Step = 75.1885%
Source Step = 75.4319%
Source Step = 75.496%
Source Step = 75.56%
Source Step = 75.6241%
Source Step = 75.6882%
vernier = 0.00317121
Source Step = 75.7618%
Source Step = 75.8579%
Source Step = 75.954%
Source Step = 76.0501%
Source Step = 76.1462%
vernier = 0.00475682
Source Step = 76.2519%
Source Step = 76.3961%
Source Step = 76.5402%
Source Step = 76.6844%
Source Step = 76.8285%
vernier = 0.00713523
Source Step = 76.9799%
Source Step = 77.1961%
Source Step = 77.4123%
Source Step = 77.6285%
Source Step = 77.8448%
Source Step = 78.061%
vernier = 0.0107028
Source Step = 78.3853%
Source Step = 78.7096%
Source Step = 79.034%
Source Step = 79.3583%
Source Step = 79.6826%
vernier = 0.0160543
Source Step = 80.1529%
Source Step = 80.6394%
Source Step = 81.1259%
Source Step = 81.6124%
Source Step = 82.0989%
vernier = 0.0240814
Source Step = 82.78%
Source Step = 83.5097%
Source Step = 84.2394%
Source Step = 84.9692%
Source Step = 85.6989%
vernier = 0.0361221
Source Step = 86.6841%
Source Step = 87.7787%
Source Step = 88.8733%
Source Step = 89.9679%
Source Step = 90.3305%
Source Step = 90.3989%
Source Step = 90.4673%
Source Step = 90.5357%
Source Step = 90.6041%
Source Step = 90.6725%
Source Step = 90.741%
Source Step = 90.8094%
Source Step = 90.8778%
Source Step = 90.9462%
Source Step = 91.0146%
Source Step = 91.083%
Source Step = 91.1514%
Source Step = 91.2198%
Source Step = 91.2883%
Source Step = 91.3567%
Source Step = 91.4251%
Source Step = 91.4935%
Source Step = 91.5619%
Source Step = 91.6303%
Source Step = 91.6987%
Source Step = 91.7671%
Source Step = 91.8356%
Source Step = 91.904%
Source Step = 91.9724%
Source Step = 92.0408%
Source Step = 92.1092%
Source Step = 92.1776%
Source Step = 92.246%
Source Step = 92.3145%
Source Step = 92.3829%
Source Step = 92.4513%
Source Step = 92.5197%
Source Step = 92.5881%
Source Step = 92.6565%
Source Step = 92.7249%
Source Step = 92.7933%
Source Step = 92.8618%
Source Step = 92.9302%
Source Step = 92.9986%
Source Step = 93.067%
Source Step = 93.1354%
Source Step = 93.2038%
Source Step = 93.2722%
Source Step = 93.3406%
Source Step = 93.4091%
Source Step = 93.4775%
Source Step = 93.5459%
Source Step = 93.6143%
Source Step = 93.6827%
Source Step = 93.7511%
Source Step = 93.8195%
Source Step = 93.888%
Source Step = 93.9564%
Source Step = 94.0248%
Source Step = 94.0932%
Source Step = 94.1616%
Source Step = 94.23%
Source Step = 94.2984%
Source Step = 94.3668%
Source Step = 94.4353%
Source Step = 94.5037%
Source Step = 94.5721%
Source Step = 94.6405%
Source Step = 94.7089%
Source Step = 94.7773%
Source Step = 94.8457%
Source Step = 94.9141%
Source Step = 94.9826%
Source Step = 95.051%
Source Step = 95.1194%
Source Step = 95.1878%
Source Step = 95.2562%
Source Step = 95.3246%
Source Step = 95.393%
Source Step = 95.4615%
Source Step = 95.5299%
Source Step = 95.5983%
Source Step = 95.6667%
Source Step = 95.7351%
Source Step = 95.8035%
Source Step = 95.8719%
Source Step = 95.9403%
Source Step = 96.0088%
Source Step = 96.0772%
Source Step = 96.1456%
Source Step = 96.214%
Source Step = 96.2824%
Source Step = 96.3508%
Source Step = 96.4192%
Source Step = 96.4876%
Source Step = 96.5561%
Source Step = 96.6245%
Source Step = 96.6929%
Source Step = 96.7613%
Source Step = 96.8297%
Source Step = 96.8981%
Source Step = 96.9665%
Source Step = 97.035%
Source Step = 97.1034%
Source Step = 97.1718%
Source Step = 97.2402%
Source Step = 97.3086%
Source Step = 97.377%
Source Step = 97.4454%
Source Step = 97.5138%
Source Step = 97.5823%
Source Step = 97.6507%
Source Step = 97.7191%
Source Step = 97.7875%
Source Step = 97.8559%
Source Step = 97.9243%
Source Step = 97.9927%
Source Step = 98.0611%
Source Step = 98.1296%
Source Step = 98.198%
Source Step = 98.2664%
Source Step = 98.3348%
Source Step = 98.4032%
Source Step = 98.4716%
Source Step = 98.54%
Source Step = 98.6085%
Source Step = 98.6769%
Source Step = 98.7453%
Source Step = 98.8137%
Source Step = 98.8821%
Source Step = 98.9505%
Source Step = 99.0189%
Source Step = 99.0873%
Source Step = 99.1558%
Source Step = 99.2242%
Source Step = 99.2926%
Source Step = 99.361%
Source Step = 99.4294%
Source Step = 99.4978%
Source Step = 99.5662%
Source Step = 99.6346%
Source Step = 99.7031%
Source Step = 99.7715%
Source Step = 99.8399%
Source Step = 99.9083%
Source Step = 99.9767%
Source Step = 100%
Source Step = 100%
Source Step = 100%
Source Step = 100%
Source Step = 100%
Source Step = 100%
Source Step = 100%
Source Step = 100%
Source Step = 100%
Source Step = 100%
Source Step = 100%
Source Step = 100%
Source Step = 100%
Source Step = 100%
Source Step = 100%
Source Step = 100%
Source Step = 100%
Source Step = 100%
Source Step = 100%
Source Step = 100%
Source Step = 100%
Source Step = 100%
Source Step = 100%
Source Step = 100%
Source Step = 100%
Source Step = 100%
Source Step = 100%
Source Step = 100%
Source Step = 100%
Source Step = 100%
Source Step = 100%
Source Step = 100%
Source Step = 100%
Source Step = 100%
Source Step = 100%
Source Step = 100%
Source Step = 100%
Source Step = 100%
Source Step = 100%
Source Step = 100%
Source Step = 100%
Source Step = 100%
Source Step = 100%
Source Step = 100%
Source Step = 100%
Source Step = 100%
Source Step = 100%
Source Step = 100%
Source Step = 100%
Source Step = 100%
Source Step = 100%
Source Step = 100%
Source Step = 100%
Source Step = 100%
Source Step = 100%
Source Step = 100%
Source Step = 100%
Source Step = 100%
Source Step = 100%
Source Step = 100%
Source Step = 100%
Source Step = 100%
Source Step = 100%
Source Step = 100%
Source Step = 100%
Source Step = 100%
Source Step = 100%
Source Step = 100%
Source Step = 100%
Source Step = 100%
Source Step = 100%
Source Step = 100%
Source Step = 100%
Source Step = 100%
Source Step = 100%
Source Step = 100%
Source Step = 100%
Source Step = 100%
Source Step = 100%
Source Step = 100%
Source Step = 100%
Source Step = 100%
Source Step = 100%
Source Step = 100%
Source Step = 100%
Source Step = 100%
Source Step = 100%
Source Step = 100%
Source Step = 100%
Source Step = 100%
Source Step = 100%
Source Step = 100%
Source Step = 100%
Source Step = 100%
Source Step = 100%
Source Step = 100%
Source Step = 100%
Source Step = 100%
Source Step = 100%
Source Step = 100%
Source Step = 100%
Source Step = 100%
Source Step = 100%
Source Step = 100%
Source Step = 100%
Source Step = 100%
Source Step = 100%
Source Step = 100%
Source Step = 100%
Source Step = 100%
Source Step = 100%
Source Step = 100%
Source Step = 100%
Source Step = 100%
Source Step = 100%
Source Step = 100%
Source Step = 100%
Source Step = 100%
Source Step = 100%
Source Step = 100%
Source Step = 100%
Source Step = 100%
Source Step = 100%
Source Step = 100%
Source Step = 100%
Source Step = 100%
Source Step = 100%
Source Step = 100%
Source Step = 100%
Source Step = 100%
Source Step = 100%
Source Step = 100%
Source Step = 100%
Source Step = 100%
Source Step = 100%
Source Step = 100%
Source Step = 100%
Source Step = 100%
Source Step = 100%
Source Step = 100%
Source Step = 100%
Source Step = 100%
Source Step = 100%
Source Step = 100%
Source Step = 100%
Source Step = 100%
Source Step = 100%
Source Step = 100%
Source Step = 100%
Source Step = 100%
Source Step = 100%
Source Step = 100%
Source Step = 100%
Source Step = 100%
Source Step = 100%
Source Step = 100%
Source Step = 100%
Source Step = 100%
Source Step = 100%
Source Step = 100%
Source Step = 100%
Source Step = 100%
Source Step = 100%
Source Step = 100%
Source Step = 100%
Source Step = 100%
Source Step = 100%
Source Step = 100%
Source Step = 100%
Source Step = 100%
Source Step = 100%
Source Step = 100%
Source Step = 100%
Source Step = 100%
Source Step = 100%
Source Step = 100%
Source Step = 100%
Source Step = 100%
Source Step = 100%
Source Step = 100%
Source Step = 100%
Source Step = 100%
Source Step = 100%
Source Step = 100%
Source Step = 100%
Source Step = 100%
Source Step = 100%
Source Step = 100%
Source Step = 100%
Source Step = 100%
Source Step = 100%
Source Step = 100%
Source Step = 100%
Source Step = 100%
Source Step = 100%
Source Step = 100%
Source Step = 100%
Source Step = 100%
Source Step = 100%
Source Step = 100%
Source Step = 100%
Source Step = 100%
Source Step = 100%
Source Step = 100%
Source Step = 100%
Source Step = 100%
Source Step = 100%
Source Step = 100%
Source Step = 100%
Source Step = 100%
Source Step = 100%
Source Step = 100%
Source Step = 100%
Source Step = 100%
Source Step = 100%
Source Step = 100%
Source Step = 100%
Source Step = 100%
Source Step = 100%
Source Step = 100%
Source Step = 100%
Source Step = 100%
Source Step = 100%
Source Step = 100%
Source Step = 100%
Source Step = 100%
Source Step = 100%
Source Step = 100%
Source Step = 100%
Source Step = 100%
Source Step = 100%
Source Step = 100%
Source Step = 100%
Source Step = 100%
Source Step = 100%
Source Step = 100%
Source Step = 100%
Source Step = 100%
Source Step = 100%
Source Step = 100%
Source Step = 100%
Source Step = 100%
Source Step = 100%
Source Step = 100%
Source Step = 100%
Source Step = 100%
Source Step = 100%
Source Step = 100%
Source Step = 100%
Source Step = 100%
Source Step = 100%
Source Step = 100%
Source Step = 100%
Source Step = 100%
Source Step = 100%
Source Step = 100%
Source Step = 100%
Source Step = 100%
Source Step = 100%
Source Step = 100%
Source Step = 100%
Source Step = 100%
Source Step = 100%
Source Step = 100%
Source Step = 100%
Source Step = 100%
Source Step = 100%
Source Step = 100%
Source Step = 100%
Source Step = 100%
Source Step = 100%
Source Step = 100%
Source Step = 100%
Source Step = 100%
Source Step = 100%
Source Step = 100%
Source Step = 100%
Source Step = 100%
Source Step = 100%
Source Step = 100%
Source Step = 100%
Source Step = 100%
Source Step = 100%
Source Step = 100%
Source Step = 100%
Source Step = 100%
Source Step = 100%
Source Step = 100%
Source Step = 100%
Source Step = 100%
Source Step = 100%
Source Step = 100%
Source Step = 100%
Source Step = 100%
Source Step = 100%
Source Step = 100%
Source Step = 100%
Source Step = 100%
Source Step = 100%
Source Step = 100%
Source Step = 100%
Source Step = 100%
Source Step = 100%
Source Step = 100%
Source Step = 100%
Source Step = 100%
Source Step = 100%
Source Step = 100%
Source Step = 100%
Source Step = 100%
Source Step = 100%
Source Step = 100%
Source Step = 100%
Source Step = 100%
Source Step = 100%
Source Step = 100%
Source Step = 100%
Source Step = 100%
Source Step = 100%
Source Step = 100%
Source Step = 100%
Source Step = 100%
Source Step = 100%
Source Step = 100%
Source Step = 100%
Source Step = 100%
Source Step = 100%
Source Step = 100%
Source Step = 100%
Source Step = 100%
Source Step = 100%
Source Step = 100%
Source Step = 100%
Source Step = 100%
Source Step = 100%
Source Step = 100%
Source Step = 100%
Source Step = 100%
Source Step = 100%
Source Step = 100%
Source Step = 100%
Source Step = 100%
Source Step = 100%
Source Step = 100%
Source Step = 100%
Source Step = 100%
Source Step = 100%
Source Step = 100%
Source Step = 100%
Source Step = 100%
Source Step = 100%
Source Step = 100%
Source Step = 100%
Source Step = 100%
Source Step = 100%
Source Step = 100%
Source Step = 100%
Source Step = 100%
Source Step = 100%
Source Step = 100%
Source Step = 100%
Source Step = 100%
Source Step = 100%
Source Step = 100%
Source Step = 100%
Source Step = 100%
Source Step = 100%
Source Step = 100%
Source Step = 100%
Source Step = 100%
Source Step = 100%
Source Step = 100%
Source Step = 100%
Source Step = 100%
Source Step = 100%
Source Step = 100%
Source Step = 100%
Source Step = 100%
Source Step = 100%
Source Step = 100%
Source Step = 100%
Source Step = 100%
Source Step = 100%
Source Step = 100%
Source Step = 100%
Source Step = 100%
Source Step = 100%
Source Step = 100%
Source Step = 100%
Source Step = 100%
Source Step = 100%
Source Step = 100%
Source Step = 100%
Source Step = 100%
Source Step = 100%
Source Step = 100%
Source Step = 100%
Source Step = 100%
Source Step = 100%
Source Step = 100%
Source Step = 100%
Source Step = 100%
Source Step = 100%
Source Step = 100%
Source Step = 100%
Source Step = 100%
Source Step = 100%
Source Step = 100%
Source Step = 100%
Source Step = 100%
Source Step = 100%
Source Step = 100%
Source Step = 100%
Source Step = 100%
Source Step = 100%
Source Step = 100%
Source Step = 100%
Source Step = 100%
Source Step = 100%
Source Step = 100%
Source Step = 100%
Source Step = 100%
Source Step = 100%
Source Step = 100%
Source Step = 100%
Source Step = 100%
Source Step = 100%
Source Step = 100%
Source Step = 100%
Source Step = 100%
Source Step = 100%
Source Step = 100%
Source Step = 100%
Source Step = 100%
Source Step = 100%
Source Step = 100%
Source Step = 100%
Source Step = 100%
Source Step = 100%
Source Step = 100%
Source Step = 100%
Source Step = 100%
Source Step = 100%
Source Step = 100%
Source Step = 100%
Source Step = 100%
Source Step = 100%
Source Step = 100%
Source Step = 100%
Source Step = 100%
Source Step = 100%
Source Step = 100%
Source Step = 100%
Source Step = 100%
Source Step = 100%
Source Step = 100%
Source Step = 100%
Source Step = 100%
Source Step = 100%
Source Step = 100%
Source Step = 100%
Source Step = 100%
Source Step = 100%
Source Step = 100%
Source Step = 100%
Source Step = 100%
Source Step = 100%
Source Step = 100%
Source Step = 100%
Source Step = 100%
Source Step = 100%
Source Step = 100%
Source Step = 100%
Source Step = 100%
Source Step = 100%
Source Step = 100%
Source Step = 100%
Source Step = 100%
Source Step = 100%
Source Step = 100%
Source Step = 100%
Source Step = 100%
Source Step = 100%
Source Step = 100%
Source Step = 100%
Source Step = 100%
Source Step = 100%
Source Step = 100%
Source Step = 100%
Source Step = 100%
Source Step = 100%
Source Step = 100%
Source Step = 100%
Source Step = 100%
Source Step = 100%
Source Step = 100%
Source Step = 100%
Source Step = 100%
Source Step = 100%
Source Step = 100%
Source Step = 100%
Source Step = 100%
Source Step = 100%
Source Step = 100%
Source Step = 100%
Source Step = 100%
Source Step = 100%
Source Step = 100%
Source Step = 100%
Source Step = 100%
Source Step = 100%
Source Step = 100%
Source Step = 100%
Source Step = 100%
Source Step = 100%
Source Step = 100%
Source Step = 100%
Source Step = 100%
Source Step = 100%
Source Step = 100%
Source Step = 100%
Source Step = 100%
Source Step = 100%
Source Step = 100%
Source Step = 100%
Source Step = 100%
Source Step = 100%
Source Step = 100%
Source Step = 100%
Source Step = 100%
Source Step = 100%
Source Step = 100%
Source Step = 100%
Source Step = 100%
Source Step = 100%
Source Step = 100%
Source Step = 100%
Source Step = 100%
Source Step = 100%
Source Step = 100%
Source Step = 100%
Source Step = 100%
Source Step = 100%
Source Step = 100%
Source Step = 100%
Source Step = 100%
Source Step = 100%
Source Step = 100%
Source Step = 100%
Source Step = 100%
Source Step = 100%
Source Step = 100%
Source Step = 100%
Source Step = 100%
Source Step = 100%
Source Step = 100%
Source Step = 100%
Source Step = 100%
Source Step = 100%
Source Step = 100%
Source Step = 100%
Source Step = 100%
Source Step = 100%
Source Step = 100%
Source Step = 100%
Source Step = 100%
Source Step = 100%
Source Step = 100%
Source Step = 100%
Source Step = 100%
Source Step = 100%
Source Step = 100%
Source Step = 100%
Source Step = 100%
Source Step = 100%
Source Step = 100%
Source Step = 100%
Source Step = 100%
Source Step = 100%
Source Step = 100%
Source Step = 100%
Source Step = 100%
Source Step = 100%
Source Step = 100%
Source Step = 100%
Source Step = 100%
Source Step = 100%
Trouble finding operating point....skipping operating point for Transient analysis.

Simulation stopped by user.
Total elapsed time: 16.600 seconds.

Files loaded:
D:\Downloads New\heart_model\heart_model\heart_cell_module.net
C:\Users\Manitha Ayanaja\AppData\Local\LTspice\lib\cmp\standard.bjt

